Circuit: * J:\ECEn 340\Lab4\CE_amp.asc

Direct Newton iteration for .op point succeeded.

Date: Wed Oct 07 14:34:04 2015
Total elapsed time: 0.090 seconds.

tnom = 27
temp = 27
method = trap
totiter = 5
traniter = 0
tranpoints = 0
accept = 0
rejected = 0
matrix size = 10
fillins = 0
solver = Normal
Matrix Compiler1:      30 opcodes
Matrix Compiler2: 774 bytes object code size

